/*--------------------------------*- C++ -*----------------------------------*\
| =========                 |                                                 |
| \\      /  F ield         | OpenFOAM: The Open Source CFD Toolbox           |
|  \\    /   O peration     | Version:  v2012                                 |
|   \\  /    A nd           | Website:  www.openfoam.com                      |
|    \\/     M anipulation  |                                                 |
\*---------------------------------------------------------------------------*/
FoamFile
{
    version     2.0;
    format      ascii;
    class       dictionary;
    object      blockMeshDict;
}
// * * * * * * * * * * * * * * * * * * * * * * * * * * * * * * * * * * * * * //

scale   0.01; // cm

vertices
(
//+Z direction
    name vp0  ( -35              0              0.1)//Vp0	
    name vp1  (  -8.5      	 0          	0.1)//Vp1
    name vp2  (   0              0          	0.1)//Vp2
    name vp3  (   2.570083	-0.595755       0.1)//Vp3 points on airfoil
    name vp4  (   2.570083	 0.595755       0.1)//Vp4 points on airfoil 
    name vp5  (  10              0      	0.1)//Vp5
    name vp6  (  30              0       	0.1)//Vp6
    name vp7  (  85   	         0              0.1)//Vp7
    name vp8  (   2.5           11          	0.1)//Vp8
    name vp9  (  10   	        10          	0.1)//Vp9
    name vp10 (  30     	10          	0.1)//Vp10
    name vp11 (  85     	10          	0.1)//Vp11
    name vp12 (   2.5          -11	        0.1)//Vp12
    name vp13 (  10            -10          	0.1)//Vp13
    name vp14 (  30            -10              0.1)//Vp14
    name vp15 (  85            -10          	0.1)//Vp15
    name vp16 (   2.5           37.417          0.1)//Vp16
    name vp17 (  10             37.417          0.1)//Vp17
    name vp18 (  30             37.417          0.1)//Vp18
    name vp19 (  85             37.417          0.1)//Vp19
    name vp20 (   2.5          -37.417          0.1)//Vp20
    name vp21 (  10            -37.417          0.1)//Vp21
    name vp22 (  30            -37.417          0.1)//Vp22
    name vp23 (  85            -37.417          0.1)//Vp23

    
//-Z direction
    name vn0  ( -35              0             -0.1)//Vn0	
    name vn1  (  -8.5      	 0             -0.1)//Vn1
    name vn2  (   0              0             -0.1)//Vn2
    name vn3  (   2.570083	-0.595755      -0.1)//Vn3 points on airfoil
    name vn4  (   2.570083	 0.595755      -0.1)//Vn4 points on airfoil 
    name vn5  (  10              0             -0.1)//Vn5
    name vn6  (  30              0             -0.1)//Vn6
    name vn7  (  85   	         0             -0.1)//Vn7
    name vn8  (   2.5           11           -0.1)//Vn8
    name vn9  (  10   	        10             -0.1)//Vn9
    name vn10 (  30     	10             -0.1)//Vn10
    name vn11 (  85     	10             -0.1)//Vn11
    name vn12 (   2.5          -11	       -0.1)//Vn12
    name vn13 (  10            -10             -0.1)//Vn13
    name vn14 (  30            -10             -0.1)//Vn14
    name vn15 (  85            -10             -0.1)//Vn15
    name vn16 (   2.5           37.417         -0.1)//Vn16
    name vn17 (  10             37.417         -0.1)//Vn17
    name vn18 (  30             37.417         -0.1)//Vn18
    name vn19 (  85             37.417         -0.1)//Vn19
    name vn20 (   2.5          -37.417         -0.1)//Vn20
    name vn21 (  10            -37.417         -0.1)//Vn21
    name vn22 (  30            -37.417         -0.1)//Vn22
    name vn23 (  85            -37.417         -0.1)//Vn23
);

blocks // 16p, 16n
(
    hex (vn1  vn8  vn16 vn0  vp1  vp8  vp16 vp0 ) (30  30  1) 
    simpleGrading
    (
	// xdir
	1 
	// ydir
	((0.25 0.3 2)
	(0.75 0.7  1))
	
	// zdir 
	1
     )//B0

    hex (vn8  vn9  vn17 vn16 vp8  vp9  vp17 vp16) (30  30  1) 
    simpleGrading
    (
	// xdir
	1 
	// ydir
	((0.25 0.3 2)
	(0.75 0.7  1))
	
	// zdir 
	1
     )//B1

    hex (vn9  vn10 vn18 vn17 vp9  vp10 vp18 vp17) (30  30  1) 
    simpleGrading
    (
	// xdir
	1 
	// ydir
	((0.25 0.3 2)
	(0.75 0.7  1))
	
	// zdir 
	1
     )//B2

    hex (vn10 vn11 vn19 vn18 vp10 vp11 vp19 vp18) (30  30  1) 
    simpleGrading
    (
	// xdir
	1 
	// ydir
	((0.25 0.3 2)
	(0.75 0.7  1))
	
	// zdir 
	1
     )//B3

    hex (vn2  vn4  vn8  vn1  vp2  vp4  vp8  vp1 ) (30  50  1)  
    simpleGrading
    (
	// xdir
	1 
	// ydir
	((0.4 0.75 8)
	(0.6 0.25  2))
	
	// zdir 
	1
     )//B4

    hex (vn4  vn5  vn9  vn8  vp4  vp5  vp9  vp8 ) (30  50  1)  
    simpleGrading
    (
	// xdir
	1 
	// ydir
	((0.4 0.75 8)
	(0.6 0.25  2))
	
	// zdir 
	1
     )//B5

    hex (vn5  vn6  vn10 vn9  vp5  vp6  vp10 vp9 ) (30  50  1) 
    simpleGrading
    (
	// xdir
	1 
	// ydir
	((0.4 0.75 8)
	(0.6 0.25  2))
	
	// zdir 
	1
     )//B6

    hex (vn6  vn7  vn11 vn10 vp6  vp7  vp11 vp10) (30  50  1)   
    simpleGrading
    (
	// xdir
	1 
	// ydir
	((0.4 0.75 8)
	(0.6 0.25  2))
	
	// zdir 
	1
     )//B7

    hex (vn1  vn12 vn3  vn2  vp1  vp12 vp3  vp2 ) (30  50  1)  
    simpleGrading
    (
	// xdir
	1 
	// ydir
	((0.6 0.25 0.5  )
         (0.4 0.75 0.125))
	
	// zdir 
	1
     )//B8

    hex (vn12 vn13 vn5  vn3  vp12 vp13 vp5  vp3 ) (30  50  1)
    simpleGrading
    (
	// xdir
	1 
	// ydir
	((0.6 0.25 0.5  )
         (0.4 0.75 0.125))
	
	// zdir 
	1
     )//B9 
   
    hex (vn13 vn14 vn6  vn5  vp13 vp14 vp6  vp5 ) (30  50  1)
    simpleGrading
    (
	// xdir
	1 
	// ydir
	((0.6 0.25 0.5  )
         (0.4 0.75 0.125))
	
	// zdir 
	1
     )//B10

    hex (vn14 vn15 vn7  vn6  vp14 vp15 vp7  vp6 ) (30  50  1) 
    simpleGrading
    (
	// xdir
	1 
	// ydir
	((0.6 0.25 0.5  )
         (0.4 0.75 0.125))
	
	// zdir 
	1
     )//B11

    hex (vn0  vn20 vn12 vn1  vp0  vp20 vp12 vp1 ) (30  30  1)
    simpleGrading
    (
	// xdir
	1 
	// ydir
	((0.75 0.7 1)
        (0.25 0.3 0.5))
	
	// zdir 
	1
     )//B12

    hex (vn20 vn21 vn13 vn12 vp20 vp21 vp13 vp12) (30  30  1) 
    simpleGrading
    (
	// xdir
	1 
	// ydir
	((0.75 0.7 1)
        (0.25 0.3 0.5))
	
	// zdir 
	1
     )//B13

    hex (vn21 vn22 vn14 vn13 vp21 vp22 vp14 vp13) (30  30  1) 
    simpleGrading
    (
	// xdir
	1 
	// ydir
	((0.75 0.7 1)
        (0.25 0.3 0.5))
	
	// zdir 
	1
     )//B14

    hex (vn22 vn23 vn15 vn14 vp22 vp23 vp15 vp14) (30  30  1) 
    simpleGrading
    (
	// xdir
	1 
	// ydir
	((0.75 0.7 1)
        (0.25 0.3 0.5))
	
	// zdir 
	1
     )//B15
);

edges 
(

  arc vp0  vp16  (-25.237   25.237   0.1)
  arc vn0  vn16  (-25.237   25.237  -0.1)

  arc vp0  vp20  (-25.237  -25.237   0.1)
  arc vn0  vn20  (-25.237  -25.237  -0.1)

  arc vp1  vp8   (-6.427  6.427   0.1)
  arc vn1  vn8   (-6.427  6.427  -0.1)

  arc vp1  vp12  (-6.427  -6.427   0.1)
  arc vn1  vn12  (-6.427  -6.427  -0.1)
  
  
 
// Normal airfoil profile +Z direction 

polyLine vp2 vp4
(
(	0		0		0.1	)
(	0.005839	0.042603	0.1	)
(	0.023342	0.084289	0.1	)
(	0.052468	0.125011	0.1	)
(	0.093149	0.164706	0.1	)
(	0.145291	0.2033		0.1	)
(	0.208771	0.240706	0.1	)
(	0.283441	0.276827	0.1	)
(	0.369127	0.311559	0.1	)
(	0.465628	0.344792	0.1	)
(	0.57272		0.376414	0.1	)
(	0.690152	0.40631		0.1	)
(	0.817649	0.434371	0.1	)
(	0.954915	0.460489	0.1	)
(	1.101628	0.484567	0.1	)
(	1.257446	0.506513	0.1	)
(	1.422005	0.526251	0.1	)
(	1.594921	0.543715	0.1	)
(	1.775789	0.558856	0.1	)
(	1.964187	0.57164		0.1	)
(	2.159676	0.582048	0.1	)
(	2.361799	0.590081	0.1	)
(	2.570083	0.595755	0.1	)
)

polyLine vp4  vp5
(
(	2.784042	0.599102	0.1	)
(	3.003177	0.600172	0.1	)
(	3.226976	0.599028	0.1	)
(	3.454915	0.595747	0.1	)
(	3.686463	0.590419	0.1	)
(	3.921079	0.583145	0.1	)
(	4.158215	0.574033	0.1	)
(	4.397317	0.5632		0.1	)
(	4.637826	0.550769	0.1	)
(	4.879181	0.536866	0.1	)
(	5.120819	0.52162		0.1	)
(	5.362174	0.505161	0.1	)
(	5.602683	0.487619	0.1	)
(	5.841786	0.469124	0.1	)
(	6.078921	0.449802	0.1	)
(	6.313537	0.429778	0.1	)
(	6.545085	0.409174	0.1	)
(	6.773025	0.388109	0.1	)
(	6.996823	0.3667		0.1	)
(	7.215958	0.345058	0.1	)
(	7.429917	0.323294	0.1	)
(	7.638202	0.301515	0.1	)
(	7.840324	0.279828	0.1	)
(	8.035813	0.258337	0.1	)
(	8.224211	0.237142	0.1	)
(	8.405079	0.216347	0.1	)
(	8.577995	0.196051	0.1	)
(	8.742554	0.176353	0.1	)
(	8.898372	0.157351	0.1	)
(	9.045085	0.139143	0.1	)
(	9.182351	0.121823	0.1	)
(	9.309849	0.105485	0.1	)
(	9.42728		0.090217	0.1	)
(	9.534372	0.076108	0.1	)
(	9.630873	0.063238	0.1	)
(	9.716559	0.051685	0.1	)
(	9.791229	0.041519	0.1	)
(	9.854709	0.032804	0.1	)
(	9.90685		0.025595	0.1	)
(	9.947532	0.019938	0.1	)
(	9.976658	0.01587		0.1	)
(	9.994161	0.013419	0.1	)
(	10		0.0126		0.1	)
)

// lower
polyLine vp2 vp3
(
(	0		0		0.1	)
(	0.005839	-0.042603	0.1	)
(	0.023342	-0.084289	0.1	)
(	0.052468	-0.125011	0.1	)
(	0.093149	-0.164706	0.1	)
(	0.145291	-0.2033		0.1	)
(	0.208771	-0.240706	0.1	)
(	0.283441	-0.276827	0.1	)
(	0.369127	-0.311559	0.1	)
(	0.465628	-0.344792	0.1	)
(	0.57272		-0.376414	0.1	)
(	0.690152	-0.40631	0.1	)
(	0.817649	-0.434371	0.1	)
(	0.954915	-0.460489	0.1	)
(	1.101628	-0.484567	0.1	)
(	1.257446	-0.506513	0.1	)
(	1.422005	-0.526251	0.1	)
(	1.594921	-0.543715	0.1	)
(	1.775789	-0.558856	0.1	)
(	1.964187	-0.57164	0.1	)
(	2.159676	-0.582048	0.1	)
(	2.361799	-0.590081	0.1	)
(	2.570083	-0.595755	0.1	)
)

polyLine vp3 vp5 
(
(	2.784042	-0.599102	0.1	)
(	3.003177	-0.600172	0.1	)
(	3.226976	-0.599028	0.1	)
(	3.454915	-0.595747	0.1	)
(	3.686463	-0.590419	0.1	)
(	3.921079	-0.583145	0.1	)
(	4.158215	-0.574033	0.1	)
(	4.397317	-0.5632		0.1	)
(	4.637826	-0.550769	0.1	)
(	4.879181	-0.536866	0.1	)
(	5.120819	-0.52162	0.1	)
(	5.362174	-0.505161	0.1	)
(	5.602683	-0.487619	0.1	)
(	5.841786	-0.469124	0.1	)
(	6.078921	-0.449802	0.1	)
(	6.313537	-0.429778	0.1	)
(	6.545085	-0.409174	0.1	)
(	6.773025	-0.388109	0.1	)
(	6.996823	-0.3667		0.1	)
(	7.215958	-0.345058	0.1	)
(	7.429917	-0.323294	0.1	)
(	7.638202	-0.301515	0.1	)
(	7.840324	-0.279828	0.1	)
(	8.035813	-0.258337	0.1	)
(	8.224211	-0.237142	0.1	)
(	8.405079	-0.216347	0.1	)
(	8.577995	-0.196051	0.1	)
(	8.742554	-0.176353	0.1	)
(	8.898372	-0.157351	0.1	)
(	9.045085	-0.139143	0.1	)
(	9.182351	-0.121823	0.1	)
(	9.309849	-0.105485	0.1	)
(	9.42728		-0.090217	0.1	)
(	9.534372	-0.076108	0.1	)
(	9.630873	-0.063238	0.1	)
(	9.716559	-0.051685	0.1	)
(	9.791229	-0.041519	0.1	)
(	9.854709	-0.032804	0.1	)
(	9.90685		-0.025595	0.1	)
(	9.947532	-0.019938	0.1	)
(	9.976658	-0.01587	0.1	)
(	9.994161	-0.013419	0.1	)
(	10		-0.0126		0.1	)
)


// Normal airfoil profile -Z direction 

polyLine vn2 vn4
(
(	0		0		-0.1	)
(	0.005839	0.042603	-0.1	)
(	0.023342	0.084289	-0.1	)
(	0.052468	0.125011	-0.1	)
(	0.093149	0.164706	-0.1	)
(	0.145291	0.2033		-0.1	)
(	0.208771	0.240706	-0.1	)
(	0.283441	0.276827	-0.1	)
(	0.369127	0.311559	-0.1	)
(	0.465628	0.344792	-0.1	)
(	0.57272		0.376414	-0.1	)
(	0.690152	0.40631		-0.1	)
(	0.817649	0.434371	-0.1	)
(	0.954915	0.460489	-0.1	)
(	1.101628	0.484567	-0.1	)
(	1.257446	0.506513	-0.1	)
(	1.422005	0.526251	-0.1	)
(	1.594921	0.543715	-0.1	)
(	1.775789	0.558856	-0.1	)
(	1.964187	0.57164		-0.1	)
(	2.159676	0.582048	-0.1	)
(	2.361799	0.590081	-0.1	)
(	2.570083	0.595755	-0.1	)
)

polyLine vn4  vn5
(
(	2.784042	0.599102	-0.1	)
(	3.003177	0.600172	-0.1	)
(	3.226976	0.599028	-0.1	)
(	3.454915	0.595747	-0.1	)
(	3.686463	0.590419	-0.1	)
(	3.921079	0.583145	-0.1	)
(	4.158215	0.574033	-0.1	)
(	4.397317	0.5632		-0.1	)
(	4.637826	0.550769	-0.1	)
(	4.879181	0.536866	-0.1	)
(	5.120819	0.52162		-0.1	)
(	5.362174	0.505161	-0.1	)
(	5.602683	0.487619	-0.1	)
(	5.841786	0.469124	-0.1	)
(	6.078921	0.449802	-0.1	)
(	6.313537	0.429778	-0.1	)
(	6.545085	0.409174	-0.1	)
(	6.773025	0.388109	-0.1	)
(	6.996823	0.3667		-0.1	)
(	7.215958	0.345058	-0.1	)
(	7.429917	0.323294	-0.1	)
(	7.638202	0.301515	-0.1	)
(	7.840324	0.279828	-0.1	)
(	8.035813	0.258337	-0.1	)
(	8.224211	0.237142	-0.1	)
(	8.405079	0.216347	-0.1	)
(	8.577995	0.196051	-0.1	)
(	8.742554	0.176353	-0.1	)
(	8.898372	0.157351	-0.1	)
(	9.045085	0.139143	-0.1	)
(	9.182351	0.121823	-0.1	)
(	9.309849	0.105485	-0.1	)
(	9.42728		0.090217	-0.1	)
(	9.534372	0.076108	-0.1	)
(	9.630873	0.063238	-0.1	)
(	9.716559	0.051685	-0.1	)
(	9.791229	0.041519	-0.1	)
(	9.854709	0.032804	-0.1	)
(	9.90685		0.025595	-0.1	)
(	9.947532	0.019938	-0.1	)
(	9.976658	0.01587		-0.1	)
(	9.994161	0.013419	-0.1	)
(	10		0.0126		-0.1	)
)

//lower
polyLine vn2 vn3
(
(	0		0		-0.1	)
(	0.005839	-0.042603	-0.1	)
(	0.023342	-0.084289	-0.1	)
(	0.052468	-0.125011	-0.1	)
(	0.093149	-0.164706	-0.1	)
(	0.145291	-0.2033		-0.1	)
(	0.208771	-0.240706	-0.1	)
(	0.283441	-0.276827	-0.1	)
(	0.369127	-0.311559	-0.1	)
(	0.465628	-0.344792	-0.1	)
(	0.57272		-0.376414	-0.1	)
(	0.690152	-0.40631	-0.1	)
(	0.817649	-0.434371	-0.1	)
(	0.954915	-0.460489	-0.1	)
(	1.101628	-0.484567	-0.1	)
(	1.257446	-0.506513	-0.1	)
(	1.422005	-0.526251	-0.1	)
(	1.594921	-0.543715	-0.1	)
(	1.775789	-0.558856	-0.1	)
(	1.964187	-0.57164	-0.1	)
(	2.159676	-0.582048	-0.1	)
(	2.361799	-0.590081	-0.1	)
(	2.570083	-0.595755	-0.1	)
)

polyLine vn3 vn5 
(
(	2.784042	-0.599102	-0.1	)
(	3.003177	-0.600172	-0.1	)
(	3.226976	-0.599028	-0.1	)
(	3.454915	-0.595747	-0.1	)
(	3.686463	-0.590419	-0.1	)
(	3.921079	-0.583145	-0.1	)
(	4.158215	-0.574033	-0.1	)
(	4.397317	-0.5632		-0.1	)
(	4.637826	-0.550769	-0.1	)
(	4.879181	-0.536866	-0.1	)
(	5.120819	-0.52162	-0.1	)
(	5.362174	-0.505161	-0.1	)
(	5.602683	-0.487619	-0.1	)
(	5.841786	-0.469124	-0.1	)
(	6.078921	-0.449802	-0.1	)
(	6.313537	-0.429778	-0.1	)
(	6.545085	-0.409174	-0.1	)
(	6.773025	-0.388109	-0.1	)
(	6.996823	-0.3667		-0.1	)
(	7.215958	-0.345058	-0.1	)
(	7.429917	-0.323294	-0.1	)
(	7.638202	-0.301515	-0.1	)
(	7.840324	-0.279828	-0.1	)
(	8.035813	-0.258337	-0.1	)
(	8.224211	-0.237142	-0.1	)
(	8.405079	-0.216347	-0.1	)
(	8.577995	-0.196051	-0.1	)
(	8.742554	-0.176353	-0.1	)
(	8.898372	-0.157351	-0.1	)
(	9.045085	-0.139143	-0.1	)
(	9.182351	-0.121823	-0.1	)
(	9.309849	-0.105485	-0.1	)
(	9.42728		-0.090217	-0.1	)
(	9.534372	-0.076108	-0.1	)
(	9.630873	-0.063238	-0.1	)
(	9.716559	-0.051685	-0.1	)
(	9.791229	-0.041519	-0.1	)
(	9.854709	-0.032804	-0.1	)
(	9.90685		-0.025595	-0.1	)
(	9.947532	-0.019938	-0.1	)
(	9.976658	-0.01587	-0.1	)
(	9.994161	-0.013419	-0.1	)
(	10		-0.0126		-0.1	)
)


);

boundary
(
     Inlet
    {
        type patch;
        faces
        (
            (vn0  vp0  vp16 vn16)
            (vn20 vp20 vp0  vn0 )
        );
    }
 
     Outlet
    {
        type patch;
        faces
        (
            (vp11 vn11 vn19 vp19)
            (vp7 vn7 vn11 vp11)
            (vp15 vn15 vn7 vp7)
            (vp23 vn23 vn15 vp15)

        );
    }
   
     
    
     Airfoil
    {
        type wall;
        faces
        (
            (vn2  vp2  vp4  vn4)
            (vn4  vp4  vp5  vn5)   
            (vn2  vp2  vp3  vn3) 
            (vn3  vp3  vp5  vn5)   

        );
    }

    Top
    {
        type patch;
        faces
        (
            (vn16 vp16 vp17 vn17)
            (vn17 vp17 vp18 vn18)
            (vn18 vp18 vp19 vn19)
        );
    }
    
    Down
    {
        type patch;
        faces
        (
            (vn20 vp20 vp21 vn21)
            (vn21 vp21 vp22 vn22)
            (vn22 vp22 vp23 vn23)
        );
    }
    
    front //16
    {
      	type            empty;
        faces
        (
           (vp1   vp8   vp16  vp0 ) //1
           (vp0   vp20  vp12  vp1 ) //2
           (vp2   vp4   vp8   vp1 ) //3
           (vp1   vp12  vp3   vp2 ) //4
           (vp8   vp9   vp17  vp16) //5
           (vp4   vp5   vp9   vp8 ) //6
           (vp12  vp13  vp5   vp3 ) //7
           (vp20  vp21  vp13  vp12) //8

           (vp9   vp10  vp18  vp17) //9
           (vp5   vp6   vp10  vp9 ) //10
           (vp13  vp14  vp6   vp5 ) //11
           (vp21  vp22  vp14  vp13) //12
           (vp10  vp11  vp19  vp18) //13
           (vp6   vp7   vp11  vp10) //14
           (vp14  vp15  vp7   vp6 ) //15
           (vp22  vp23  vp15  vp14) //16
        );
    }
	
	
    back
    {
        type            empty;
        faces
        (
           (vn1   vn8   vn16  vn0 ) //1
           (vn0   vn20  vn12  vn1 ) //2
           (vn2   vn4   vn8   vn1 ) //3
           (vn1   vn12  vn3   vn2 ) //4
           (vn8   vn9   vn17  vn16) //5
           (vn4   vn5   vn9   vn8 ) //6
           (vn12  vn13  vn5   vn3 ) //7
           (vn20  vn21  vn13  vn12) //8

           (vn9   vn10  vn18  vn17) //9
           (vn5   vn6   vn10  vn9 ) //10
           (vn13  vn14  vn6   vn5 ) //11
           (vn21  vn22  vn14  vn13) //12
           (vn10  vn11  vn19  vn18) //13
           (vn6   vn7   vn11  vn10) //14
           (vn14  vn15  vn7   vn6 ) //15
           (vn22  vn23  vn15  vn14) //16

        );
    }
);

mergePatchPairs
(
);

// ************************************************************************* //
